Hello git Branches
New line.
New line for rebase
